*Heading
** Job name: Job-1 Model name: Job-1
** Generated by: Abaqus/CAE 2020
*Preprint, echo=NO, model=NO, history=NO, contact=NO
**
** PARTS
**
*Part, name=COMPLEX_200_8
*Node
      1,           4.,          -4.,           0.
      2,           4.,         -3.5,           0.
      3,           4.,          -3.,           0.
      4,           4.,         -2.5,           0.
      5,           4.,          -2.,           0.
      6,           4.,         -1.5,           0.
      7,           4.,          -1.,           0.
      8,           4.,         -0.5,           0.
      9,           4.,           0.,           0.
     10,   3.96854091,  0.499734998, -0.0301229991
     11,   3.87486792,  0.992447019, -0.0210849997
     12,   3.72102904,   1.46735895, 0.0280329995
     13,   3.51044703,     1.913939,  0.116564997
     14,   3.24776006,   2.32235909,  0.242286995
     15,   2.93862295,   2.68389702,  0.401486009
     16,   2.58944106,   2.99127007,  0.589146018
     17,   2.20706511,   3.23884606,  0.799202025
     18,   1.79851103,   3.42272902,   1.02482605
     19,   1.37071002,    3.5407331,   1.25871396
     20,  0.930320978,    3.5922761,   1.49333799
** ... 181 like lines cut
*Element, type=B31
  1,   1,   2
  2,   2,   3
  3,   3,   4
  4,   4,   5
  5,   5,   6
  6,   6,   7
  7,   7,   8
  8,   8,   9
  9,   9,  10
 10,  10,  11
 11,  11,  12
 12,  12,  13
 13,  13,  14
 14,  14,  15
 15,  15,  16
 16,  16,  17
 17,  17,  18
 18,  18,  19
 19,  19,  20
 20,  20,  21
** ... 180 like lines cut
*Nset, nset=_PICKEDSET5, internal, generate
   1,  201,    1
*Elset, elset=_PICKEDSET5, internal, generate
   1,  200,    1
*Elset, elset=SET-2, generate
   1,  200,    1
*Elset, elset=SET-3, generate
   1,  200,    1
** Section: Section-1-SET-2  Profile: Profile-1
*Beam Section, elset=SET-2, material=platinum_wire, temperature=GRADIENTS, section=CIRC
0.15
0.,0.,-1.
*End Part
**  
*Part, name=ANEURYSM
*Node
*Include, input=nodeset_IA_1.inc
*Element, type=S3, elset=elset_IA
*Include, input=elset_IA_1.inc
*Nset, nset=RP_IA
 1
** Section: Section-2-SET-2
*Shell Section, elset=elset_IA, material=Aneurysm
0.3, 5
*End Part
**  
*Part, name=CATHETER
*Node
      1,  0.300000012, -0.200000003,           0.
      2,  0.300000012,        -100.,           0.
      3,  0.642602503, 0.00292390585,           0.
      4,         8.75,        -100.,           0.
      5,  0.274063647, -0.200000003,   0.12202099
      6,  0.200739175, -0.200000003,  0.222943455
      7, 0.0927051008, -0.200000003,  0.285316944
      8, -0.0313585401, -0.200000003,  0.298356563
      9, -0.150000006, -0.200000003,  0.259807616
     10, -0.242705092, -0.200000003,  0.176335573
     11, -0.293444276, -0.200000003, 0.0623735078
     12, -0.293444276, -0.200000003, -0.0623735078
     13, -0.242705092, -0.200000003, -0.176335573
     14, -0.150000006, -0.200000003, -0.259807616
     15, -0.0313585401, -0.200000003, -0.298356563
     16, 0.0927051008, -0.200000003, -0.285316944
     17,  0.200739175, -0.200000003, -0.222943455
     18,  0.274063647, -0.200000003,  -0.12202099
     19,  0.300000012, -0.400000006,           0.
     20,  0.300000012, -0.600000024,           0.
** ... 14186 like lines cut
*Element, type=R3D3
    1,    1,   18,   19
    2,   18,  862,   19
    3,   18,   17,  862
    4,   17,  863,  862
    5,   17,   16,  863
    6,   16,  864,  863
    7,   16,   15,  864
    8,   15,  865,  864
    9,   15,   14,  865
   10,   14,  866,  865
   11,   14,   13,  866
   12,   13,  867,  866
   13,   13,   12,  867
   14,   12,  868,  867
   15,   12,   11,  868
   16,   11,  869,  868
   17,   11,   10,  869
   18,   10,  870,  869
   19,   10,    9,  870
   20,    9,  871,  870
** ... 28008 like lines cut
*Element, type=R3D4
14971,    3,  544, 7834,  545
14972,  544,  543, 7835, 7834
14973,  543,  542, 7836, 7835
14974,  542,  541, 7837, 7836
14975,  541,  540, 7838, 7837
14976,  540,  539, 7839, 7838
14977,  539,  538, 7840, 7839
14978,  538,  537, 7841, 7840
14979,  537,  536, 7842, 7841
14980,  536,  535, 7843, 7842
14981,  535,  534, 7844, 7843
14982,  534,  533, 7845, 7844
14983,  533,  532, 7846, 7845
14984,  532,  531, 7847, 7846
14985,  531,    3,  545, 7847
14986,  545, 7834, 7848,  546
14987, 7834, 7835, 7849, 7848
14988, 7835, 7836, 7850, 7849
14989, 7836, 7837, 7851, 7850
14990, 7837, 7838, 7852, 7851
** ... 25 like lines cut
*Nset, nset=CATHETER-REFPT_, internal
 14205, 14206
*End Part
**  
**
** ASSEMBLY
**
*Assembly, name=Assembly
**  
*Instance, name=CATHETER-1, part=CATHETER
*End Instance
**  
*Instance, name=COMPLEX_200_8-1, part=COMPLEX_200_8
         -4.,           4.,           0.
*End Instance
**  
*Instance, name=ANEURYSM-1, part=ANEURYSM
*End Instance
**  
*Node
      2, -0.287847906,  -100.025909, -0.0845197663
*Elset, elset=B_SET-35, instance=CATHETER-1, generate
     1,  28073,      1
*Nset, nset=FIRST_coil, instance=COMPLEX_200_8-1
 1,
*Nset, nset=LAST_coil, instance=COMPLEX_200_8-1
 201,
*Nset, nset=M_SET-18
 2,
*Nset, nset=M_SET-29, instance=CATHETER-1
 14205,
*Nset, nset=M_SET-37, instance=CATHETER-1
 14206,
*Nset, nset=neck_points, instance=ANEURYSM-1
*Include, input=neck_set_1.inc
*Nset, nset=SET-24
 2,
*Nset, nset=SET-33, instance=CATHETER-1
 14205,
*Nset, nset=IA, instance=ANEURYSM-1
*Include, input=IA_1.inc
*Elset, elset=_COIL_END2, internal, instance=COMPLEX_200_8-1, generate
   1,  200,    1
*Elset, elset=_IA_SPOS, internal, instance=ANEURYSM-1
*Include, input=elset_IA_1.inc
*Nset, nset=_PICKEDSET29, internal, instance=CATHETER-1
 14205,
*Nset, nset=_PICKEDSET33, internal, instance=CATHETER-1
 14205,
*Nset, nset=_PICKEDSET60, internal, instance=CATHETER-1
 14205,
*Nset, nset=_PickedSet30, internal, instance=CATHETER-1
 14205,
*Elset, elset=_SURF-IA_SNEG_1, internal, instance=ANEURYSM-1
*Include, input=elset_IA_1.inc
*Elset, elset=_S_SURF-4_SNEG, internal, instance=CATHETER-1, generate
     1,  28073,      1
*Surface, type=ELEMENT, name=COIL
_COIL_END2, END2
*Surface, type=ELEMENT, name=IA
_IA_SPOS, SPOS
*Elset, elset=_SURF-IA_SNEG, internal, instance=ANEURYSM-1
*Include, input=elset_IA_1.inc
*Elset, elset=elset_IA,instance=ANEURYSM-1
*Include, input=elset_IA_1.inc
*Surface, type=ELEMENT, name=SURF-IA
_SURF-IA_SNEG, SNEG
*Surface, type=ELEMENT, name=S_SURF-4
_S_SURF-4_SNEG, SNEG
**
*Nset, nset=RP_IA, instance = ANEURYSM-1
 1
**
** Constraint: CONSTRAINT-IA
**Coupling, constraint name=CONSTRAINT-IA, ref node=RP_IA, surface=SURF-IA
**Kinematic
** Constraint: CONSTRAINT-3
*Coupling, constraint name=CONSTRAINT-3, ref node=M_SET-37, surface=S_SURF-4
*Kinematic
** Constraint: RigidBody-1
*Rigid Body, ref node=_PickedSet30, elset=B_SET-35
** Constraint: rigid_IA
*Rigid Body, ref node=RP_IA, elset=elset_IA
*End Assembly
*Amplitude, name=AMP-1, definition=SMOOTH STEP
             0.,              0.,             10.,              1.
*Amplitude, name=AMP-2, definition=SMOOTH STEP
             0.,              0.,             30.,              1.
** 
** MATERIALS
** 
*Material, name=platinum_wire
*Damping, alpha=100., beta=1e-06
*Density
 2.13e-07,
*Elastic
7500., 0.39
*Material, name=Aneurysm
*Damping, alpha=450.
*Density
 1.06e-09,
*Elastic
 3.2, 0.49
** 
** INTERACTION PROPERTIES
** 
*Surface Interaction, name=INTPROP-1
*Friction
0.,
*Surface Behavior, pressure-overclosure=HARD
*Surface Interaction, name=INTPROP-2
*Friction
 0.2,
*Surface Interaction, name=INTPROP-3
*Friction
 0.2,
** 
** BOUNDARY CONDITIONS
** 
** Name: Disp-BC-1 Type: Symmetry/Antisymmetry/Encastre
*Boundary
IA, ENCASTRE
** Name: Disp-BC-2 Type: Symmetry/Antisymmetry/Encastre
*Boundary
SET-33, ENCASTRE
** 
** INTERACTIONS
** 
** Interaction: general_contact
*Contact, op=NEW
*Contact Inclusions, ALL EXTERIOR
*Contact Property Assignment
 ,  , INTPROP-1
** ----------------------------------------------------------------
** 
** STEP: Step-1
** 
*Step, name=Step-1, nlgeom=YES
*Dynamic, Explicit
, 10.
*Bulk Viscosity
0.06, 1.2
** Mass Scaling: Semi-Automatic
**               Whole Model
*Fixed Mass Scaling, factor=1000.
** 
** BOUNDARY CONDITIONS
** 
** Name: Disp-BC-3 Type: Displacement/Rotation
*Boundary, amplitude=AMP-1
FIRST_coil, 1, 1
** Name: Disp-BC-4 Type: Displacement/Rotation
*Boundary, amplitude=AMP-1
FIRST_coil, 2, 2, -101.
** Name: Disp-BC-5 Type: Displacement/Rotation
*Boundary, amplitude=AMP-1
FIRST_coil, 3, 3
** Name: Disp-BC-6 Type: Displacement/Rotation
*Boundary, amplitude=AMP-1
FIRST_coil, 4, 4
** Name: Disp-BC-7 Type: Displacement/Rotation
*Boundary, amplitude=AMP-1
FIRST_coil, 5, 5
** Name: Disp-BC-8 Type: Displacement/Rotation
*Boundary, amplitude=AMP-1
FIRST_coil, 6, 6
*Boundary, amplitude=AMP-1
IA, ENCASTRE
** 
** OUTPUT REQUESTS
** 
*Restart, write, number interval=1, time marks=NO
** 
** FIELD OUTPUT: F-Output-1
** 
*Output, field, variable=PRESELECT, number interval=200
** 
** HISTORY OUTPUT: H-Output-1
** 
*Output, history, variable=PRESELECT
*End Step
** ----------------------------------------------------------------
** 
** STEP: Step-2
** 
*Step, name=Step-2, nlgeom=YES
*Dynamic, Explicit
, 35.
*Bulk Viscosity
0.06, 1.2
** Mass Scaling: Semi-Automatic
**               Whole Model
*Fixed Mass Scaling, factor=1000.
** 
** BOUNDARY CONDITIONS
** 
** Name: Disp-BC-1 Type: Symmetry/Antisymmetry/Encastre
*Boundary, op=NEW
** Name: Disp-BC-2 Type: Symmetry/Antisymmetry/Encastre
*Boundary, op=NEW
** Name: Disp-BC-3 Type: Displacement/Rotation
*Boundary, op=NEW
** Name: Disp-BC-4 Type: Displacement/Rotation
*Boundary, op=NEW
** Name: Disp-BC-5 Type: Displacement/Rotation
*Boundary, op=NEW
** Name: Disp-BC-6 Type: Displacement/Rotation
*Boundary, op=NEW
** Name: Disp-BC-7 Type: Displacement/Rotation
*Boundary, op=NEW
** Name: Disp-BC-8 Type: Displacement/Rotation
*Boundary, op=NEW
** Name: Disp-BC-11 Type: Displacement/Rotation
*Boundary, op=NEW, amplitude=AMP-2
LAST_coil, 2, 2, -100.
** Name: Disp-BC-12 Type: Symmetry/Antisymmetry/Encastre
*Boundary, op=NEW
SET-33, ENCASTRE
*Boundary, op=NEW,amplitude=AMP-1
IA, ENCASTRE
** 
** INTERACTIONS
** 
** Interaction: general_contact
*Contact, op=NEW
** Interaction: general_contact_Step-2
*Contact, op=NEW
*Contact Inclusions, ALL EXTERIOR
*Contact Property Assignment
 ,  , INTPROP-3
** 
** OUTPUT REQUESTS
** 
*Restart, write, number interval=1, time marks=NO
** 
** FIELD OUTPUT: F-Output-2
** 
*Output, field, variable=PRESELECT, number interval=200
** 
** HISTORY OUTPUT: H-Output-2
*Energy Output, elset=_COIL_END2
ALLSE, 
** 
*Output, history, variable=PRESELECT
*End Step
